test/TEST190523/v_h22.csv
Bus, BasekV, Node1, Magnitude1, Angle1, pu1, Node2, Magnitude2, Angle2, pu2, Node3, Magnitude3, Angle3, pu3
"SOURCEBUS", 69, 1,    41820.7,   -0.2,    1.0498, 2,    41806.8, -120.3,    1.0494, 3,    41781.2,  119.8,    1.0488
"BUSMVMAI1", 12.8, 1,    7755.29,  -30.7,    1.0494, 2,    7758.17, -150.8,    1.0498, 3,    7740.88,   89.0,    1.0475
"BUSMVMAI136", 12.505, 1,    7755.27,  -30.7,    1.0741, 2,     7758.1, -150.8,    1.0745, 3,    7740.81,   89.0,    1.0721
"BUSMVMAI3", 12.505, 1,    7741.92,  -31.3,    1.0723, 2,    7703.18, -151.3,    1.0669, 3,    7689.01,   88.0,     1.065
"BUSMVMAI2", 12.505, 1,    7741.89,  -31.3,    1.0723, 2,    7703.03, -151.3,    1.0669, 3,    7688.87,   88.0,    1.0649
"BUSMVMAI4", 12.505, 1,    7741.52,  -31.3,    1.0722, 2,    7701.49, -151.4,    1.0667, 3,    7687.44,   88.0,    1.0647
"BUSMVMAI46", 12.505, 1,    7741.94,  -31.3,    1.0723, 2,    7703.25, -151.3,    1.0669, 3,    7689.07,   88.0,     1.065
"BUSMVMAI5", 12.505, 1,    7740.92,  -31.3,    1.0722, 2,    7699.81, -151.4,    1.0665, 3,    7685.86,   87.9,    1.0645
"BUSMVMAI862", 12.505, 1,    7741.51,  -31.3,    1.0722, 0, 0, 0, 0, 0, 0, 0, 0
"BUSMVMAI6", 12.505, 1,    7740.81,  -31.3,    1.0721, 2,     7699.5, -151.4,    1.0664, 3,    7685.57,   87.9,    1.0645
"BUSMVMAI859", 12.505, 3,    7685.83,   87.9,    1.0645, 0, 0, 0, 0, 0, 0, 0, 0
"BUSMVMAI860", 12.505, 3,    7685.86,   87.9,    1.0645, 0, 0, 0, 0, 0, 0, 0, 0
"BUSMVMAI7", 12.505, 1,    7740.04,  -31.3,     1.072, 2,    7698.14, -151.4,    1.0662, 3,    7684.17,   87.9,    1.0643
"BUSMVMAI8", 12.505, 1,    7740.19,  -31.3,     1.072, 2,    7696.02, -151.4,    1.0659, 3,    7683.26,   87.9,    1.0642
"BUSMVMAI9", 12.505, 1,    7740.04,  -31.3,     1.072, 2,    7698.14, -151.4,    1.0662, 3,    7684.16,   87.9,    1.0643
"BUSMVMAI10", 12.505, 1,    7739.52,  -31.3,     1.072, 2,    7698.14, -151.4,    1.0662, 3,    7683.75,   87.9,    1.0642
"BUSMVMAI56", 12.505, 1,    7739.78,  -31.3,     1.072, 2,    7698.14, -151.4,    1.0662, 3,    7683.96,   87.9,    1.0643
"BUSMVMAI861", 12.505, 3,    7685.77,   87.9,    1.0645, 0, 0, 0, 0, 0, 0, 0, 0
"BUSMVMAI12", 12.505, 1,    7740.32,  -31.3,    1.0721, 2,    7694.29, -151.4,    1.0657, 3,    7682.52,   87.9,    1.0641
"BUSMVMAI51", 12.505, 1,    7740.19,  -31.3,     1.072, 2,    7696.02, -151.4,    1.0659, 3,    7683.26,   87.9,    1.0642
"BUSMVMAI2171", 12.505, 1,    7740.19,  -31.3,     1.072, 0, 0, 0, 0, 0, 0, 0, 0
"BUSMVMAI863", 12.505, 3,    7685.72,   87.9,    1.0645, 0, 0, 0, 0, 0, 0, 0, 0
"BUSMVMAI2165", 12.505, 3,    7684.16,   87.9,    1.0643, 0, 0, 0, 0, 0, 0, 0, 0
"BUSMVMAI694", 12.505, 1,    7740.04,  -31.3,     1.072, 2,    7698.14, -151.4,    1.0662, 3,    7684.16,   87.9,    1.0643
"BUSMVMAI122", 12.505, 1,    7739.49,  -31.3,     1.072, 2,    7698.14, -151.4,    1.0662, 3,    7683.73,   87.9,    1.0642
"BUSMVMAI11", 12.505, 1,    7740.32,  -31.3,    1.0721, 2,    7694.28, -151.4,    1.0657, 3,    7682.52,   87.9,    1.0641
"BUSMVMAI13", 12.505, 1,    7740.32,  -31.3,    1.0721, 2,    7694.26, -151.4,    1.0657, 3,    7682.52,   87.9,    1.0641
"BUSMVMAI18", 12.505, 1,    7740.38,  -31.3,    1.0721, 2,    7693.65, -151.4,    1.0656, 3,    7682.23,   87.9,     1.064
"BUSMVMAI14", 12.505, 1,    7740.32,  -31.3,    1.0721, 2,    7694.21, -151.4,    1.0657, 3,    7682.54,   87.9,    1.0641
"BUSMVMAI15", 12.505, 1,    7740.31,  -31.3,    1.0721, 2,    7694.16, -151.4,    1.0657, 3,    7682.55,   87.9,    1.0641
"BUSMVMAI16", 12.505, 1,    7740.32,  -31.3,    1.0721, 2,    7694.16, -151.4,    1.0657, 3,    7682.54,   87.9,    1.0641
"BUSMVMAI2166", 12.505, 2,    7694.16, -151.4,    1.0657, 0, 0, 0, 0, 0, 0, 0, 0
"BUSMVMAI2172", 12.505, 1,    7741.51,  -31.3,    1.0722, 0, 0, 0, 0, 0, 0, 0, 0
"BUSMVMAI864", 12.505, 3,    7685.68,   87.9,    1.0645, 0, 0, 0, 0, 0, 0, 0, 0
"BUSMVMAI865", 12.505, 3,    7685.62,   87.9,    1.0645, 0, 0, 0, 0, 0, 0, 0, 0
"BUSMVMAI17", 12.505, 1,    7740.32,  -31.3,    1.0721, 2,    7694.16, -151.4,    1.0657, 3,    7682.54,   87.9,    1.0641
"BUSMVMAI695", 12.505, 1,    7740.32,  -31.3,    1.0721, 2,    7694.16, -151.4,    1.0657, 3,    7682.54,   87.9,    1.0641
"BUSMVMAI866", 12.505, 3,    7685.62,   87.9,    1.0645, 0, 0, 0, 0, 0, 0, 0, 0
"BUSMVMAI2176", 12.505, 3,    7685.62,   87.9,    1.0645, 0, 0, 0, 0, 0, 0, 0, 0
"BUSMVMAI2177", 12.505, 3,    7685.62,   87.9,    1.0645, 0, 0, 0, 0, 0, 0, 0, 0
"BUSMVMAI2178", 12.505, 3,    7685.58,   87.9,    1.0645, 0, 0, 0, 0, 0, 0, 0, 0
"BUSMVMAI19", 12.505, 1,    7740.49,  -31.3,    1.0721, 2,     7692.5, -151.4,    1.0654, 3,    7681.72,   87.9,     1.064
"BUSMVMAI20", 12.505, 1,    7740.64,  -31.3,    1.0721, 2,    7690.88, -151.4,    1.0652, 3,    7681.01,   87.8,    1.0639
"BUSMVMAI53", 12.505, 1,    7740.49,  -31.3,    1.0721, 2,     7692.5, -151.4,    1.0654, 3,    7681.72,   87.9,     1.064
"BUSMVMAI21", 12.505, 1,     7740.8,  -31.3,    1.0721, 2,    7689.18, -151.4,     1.065, 3,    7680.26,   87.8,    1.0637
"BUSMVMAI22", 12.505, 1,    7740.98,  -31.3,    1.0722, 2,    7687.19, -151.4,    1.0647, 3,     7679.4,   87.8,    1.0636
"BUSMVMAI23", 12.505, 1,     7740.8,  -31.3,    1.0721, 2,    7689.18, -151.4,     1.065, 3,    7680.26,   87.8,    1.0637
"BUSMVMAI25", 12.505, 1,    7741.17,  -31.3,    1.0722, 2,    7685.13, -151.5,    1.0644, 3,    7678.51,   87.8,    1.0635
"BUSMVMAI52", 12.505, 1,    7740.98,  -31.3,    1.0722, 2,    7687.19, -151.4,    1.0647, 3,     7679.4,   87.8,    1.0636
"BUSMVMAI54", 12.505, 1,    7740.98,  -31.3,    1.0722, 2,    7687.19, -151.4,    1.0647, 3,     7679.4,   87.8,    1.0636
"BUSMVMAI55", 12.505, 1,    7740.98,  -31.3,    1.0722, 2,    7687.19, -151.4,    1.0647, 3,     7679.4,   87.8,    1.0636
"BUSMVMAI696", 12.505, 1,     7740.8,  -31.3,    1.0721, 2,    7689.18, -151.4,     1.065, 3,    7680.25,   87.8,    1.0637
"BUSMVMAI24", 12.505, 1,    7741.19,  -31.3,    1.0722, 2,    7684.93, -151.5,    1.0644, 3,    7678.43,   87.8,    1.0635
"BUSMVMAI26", 12.505, 1,    7741.38,  -31.3,    1.0722, 2,    7682.88, -151.5,    1.0641, 3,    7677.55,   87.7,    1.0634
"BUSMVMAI49", 12.505, 1,    7741.17,  -31.3,    1.0722, 2,    7685.13, -151.5,    1.0644, 3,    7678.51,   87.8,    1.0635
"BUSMVMAI50", 12.505, 1,    7741.17,  -31.3,    1.0722, 2,    7685.13, -151.5,    1.0644, 3,    7678.51,   87.8,    1.0635
"BUSMVMAI27", 12.505, 1,    7741.36,  -31.3,    1.0722, 2,    7682.89, -151.5,    1.0641, 3,    7677.54,   87.7,    1.0634
"BUSMVMAI28", 12.505, 1,    7741.53,  -31.3,    1.0722, 2,     7681.3, -151.5,    1.0639, 3,    7676.89,   87.7,    1.0633
"BUSMVMAI29", 12.505, 1,    7741.35,  -31.3,    1.0722, 2,    7682.89, -151.5,    1.0641, 3,    7677.54,   87.7,    1.0634
"BUSMVMAI31", 12.505, 1,     7741.7,  -31.3,    1.0723, 2,    7679.47, -151.5,    1.0636, 3,    7676.12,   87.7,    1.0632
"BUSMVMAI30", 12.505, 1,    7741.34,  -31.3,    1.0722, 2,     7682.9, -151.5,    1.0641, 3,    7677.53,   87.7,    1.0634
"BUSMVMAI34", 12.505, 1,    7741.32,  -31.3,    1.0722, 2,    7682.91, -151.5,    1.0641, 3,    7677.52,   87.7,    1.0634
"BUSMVMAI867", 12.505, 1,    7741.65,  -31.3,    1.0723, 0, 0, 0, 0, 0, 0, 0, 0
"BUSMVMAI43", 12.505, 1,     7741.7,  -31.3,    1.0723, 2,    7679.43, -151.5,    1.0636, 3,    7676.11,   87.7,    1.0632
"BUSMVMAI871", 12.505, 2,    7679.47, -151.5,    1.0636, 0, 0, 0, 0, 0, 0, 0, 0
"BUSMVMAI33", 12.505, 1,    7741.76,  -31.3,    1.0723, 2,     7678.9, -151.5,    1.0636, 3,    7675.89,   87.7,    1.0631
"BUSMVMAI32", 12.505, 1,    7741.94,  -31.4,    1.0723, 2,    7677.33, -151.5,    1.0633, 3,    7675.26,   87.7,    1.0631
"BUSMVMAI37", 12.505, 1,    7742.16,  -31.4,    1.0723, 2,    7675.16, -151.5,     1.063, 3,    7674.42,   87.6,    1.0629
"BUSMVMAI44", 12.505, 1,    7741.71,  -31.3,    1.0723, 2,    7679.39, -151.5,    1.0636, 3,    7676.09,   87.7,    1.0632
"BUSMVMAI35", 12.505, 1,    7741.32,  -31.3,    1.0722, 2,    7682.91, -151.5,    1.0641, 3,    7677.51,   87.7,    1.0634
"BUSMVMAI36", 12.505, 1,    7741.32,  -31.3,    1.0722, 2,    7682.91, -151.5,    1.0641, 3,    7677.51,   87.7,    1.0634
"BUSMVMAI869", 12.505, 1,    7741.65,  -31.3,    1.0723, 0, 0, 0, 0, 0, 0, 0, 0
"BUSMVMAI38", 12.505, 1,    7742.34,  -31.4,    1.0723, 2,    7673.45, -151.5,    1.0628, 3,    7673.75,   87.6,    1.0628
"BUSMVMAI2181", 12.505, 1,    7742.15,  -31.4,    1.0723, 0, 0, 0, 0, 0, 0, 0, 0
"BUSMVMAI868", 12.505, 1,    7741.56,  -31.3,    1.0722, 0, 0, 0, 0, 0, 0, 0, 0
"BUSMVMAI870", 12.505, 1,    7741.47,  -31.4,    1.0722, 0, 0, 0, 0, 0, 0, 0, 0
"BUSMVMAI39", 12.505, 1,    7742.36,  -31.4,    1.0723, 2,    7673.43, -151.5,    1.0628, 3,     7673.7,   87.6,    1.0628
"BUSMVMAI40", 12.505, 1,    7742.48,  -31.4,    1.0724, 2,    7671.77, -151.5,    1.0626, 3,    7673.14,   87.6,    1.0628
"BUSMVMAI697", 12.505, 1,    7742.39,  -31.4,    1.0724, 2,    7673.45, -151.5,    1.0628, 3,    7673.56,   87.6,    1.0628
"BUSMVMAI41", 12.505, 1,    7742.64,  -31.4,    1.0724, 2,    7669.84, -151.5,    1.0623, 3,    7672.42,   87.6,    1.0627
"BUSMVMAI42", 12.505, 1,    7742.66,  -31.4,    1.0724, 2,    7669.83, -151.5,    1.0623, 3,     7672.4,   87.6,    1.0627
"BUSMVMAI48", 12.505, 1,    7742.76,  -31.4,    1.0724, 2,    7668.23, -151.6,    1.0621, 3,    7671.84,   87.5,    1.0626
"BUSMVMAI303", 12.505, 1,     7742.7,  -31.4,    1.0724, 2,    7669.04, -151.6,    1.0622, 3,    7672.13,   87.6,    1.0626
"BUSMVMAI45", 12.505, 1,    7742.66,  -31.4,    1.0724, 2,    7669.83, -151.5,    1.0623, 3,    7672.39,   87.6,    1.0627
"BUSMVMAI701", 12.505, 1,    7742.66,  -31.4,    1.0724, 2,    7669.83, -151.5,    1.0623, 3,    7672.37,   87.6,    1.0627
"BUSMVMAI47", 12.505, 1,     7742.1,  -31.3,    1.0723, 2,    7703.93, -151.3,     1.067, 3,     7689.7,   88.0,    1.0651
"BUSMVMAI179", 12.505, 1,    7742.02,  -31.3,    1.0723, 2,    7703.59, -151.3,     1.067, 3,    7689.39,   88.0,     1.065
"BUSMVMAI160", 12.505, 1,    7742.49,  -31.2,    1.0724, 2,    7705.56, -151.3,    1.0673, 3,    7691.22,   88.0,    1.0653
"BUSMVMAI1103", 12.505, 1,     7742.7,  -31.4,    1.0724, 0, 0, 0, 0, 0, 0, 0, 0
"BUSMVMAI259", 12.505, 1,    7742.86,  -31.4,    1.0724, 2,    7667.41, -151.6,     1.062, 3,    7671.58,   87.5,    1.0625
"BUSMVMAI304", 12.505, 1,    7742.76,  -31.4,    1.0724, 2,    7668.23, -151.6,    1.0621, 3,    7671.84,   87.5,    1.0626
"BUSMVMAI702", 12.505, 1,    7741.17,  -31.3,    1.0722, 2,    7685.13, -151.5,    1.0644, 3,    7678.51,   87.8,    1.0635
"BUSMVMAI58", 12.505, 1,    7739.16,  -31.3,    1.0719, 2,    7698.13, -151.4,    1.0662, 3,    7683.46,   87.9,    1.0642
"BUSMVMAI57", 12.505, 1,    7737.94,  -31.3,    1.0717, 2,    7698.13, -151.4,    1.0662, 3,    7682.47,   87.9,    1.0641
"BUSMVMAI60", 12.505, 1,    7737.42,  -31.3,    1.0717, 2,    7698.13, -151.4,    1.0662, 3,    7682.06,   87.9,     1.064
"BUSMVMAI703", 12.505, 1,    7737.94,  -31.3,    1.0717, 2,    7698.13, -151.4,    1.0662, 3,    7682.45,   87.9,    1.0641
"BUSMVMAI123", 12.505, 1,    7739.46,  -31.3,    1.0719, 2,    7698.14, -151.4,    1.0662, 3,     7683.7,   87.9,    1.0642
"BUSMVMAI59", 12.505, 1,    7736.69,  -31.3,    1.0716, 2,    7698.16, -151.4,    1.0662, 3,    7681.63,   87.9,    1.0639
"BUSMVMAI61", 12.505, 1,    7735.46,  -31.4,    1.0714, 2,    7698.22, -151.4,    1.0662, 3,     7680.9,   87.9,    1.0638
"BUSMVMAI63", 12.505, 1,    7737.46,  -31.3,    1.0717, 2,     7698.1, -151.4,    1.0662, 3,       7682,   87.9,     1.064
"BUSMVMAI874", 12.505, 3,    7682.06,   87.9,     1.064, 0, 0, 0, 0, 0, 0, 0, 0
"BUSMVMAI62", 12.505, 1,    7734.24,  -31.4,    1.0712, 2,    7698.23, -151.4,    1.0662, 3,    7680.16,   87.9,    1.0637
"BUSMVMAI64", 12.505, 1,     7732.9,  -31.4,     1.071, 2,     7698.3, -151.4,    1.0662, 3,     7679.6,   87.9,    1.0637
"BUSMVMAI942", 12.505, 3,    7680.16,   87.9,    1.0637, 0, 0, 0, 0, 0, 0, 0, 0
"BUSMVMAI873", 12.505, 3,    7680.15,   87.9,    1.0637, 0, 0, 0, 0, 0, 0, 0, 0
"BUSMVMAI872", 12.505, 3,    7679.88,   87.9,    1.0637, 0, 0, 0, 0, 0, 0, 0, 0
"BUSMVMAI880", 12.505, 3,    7679.88,   87.9,    1.0637, 0, 0, 0, 0, 0, 0, 0, 0
"BUSMVMAI945", 12.505, 3,    7681.99,   87.9,     1.064, 0, 0, 0, 0, 0, 0, 0, 0
"BUSMVMAI65", 12.505, 1,    7731.49,  -31.4,    1.0708, 2,    7698.33, -151.4,    1.0663, 3,    7678.99,   87.9,    1.0636
"BUSMVMAI66", 12.505, 1,    7730.06,  -31.4,    1.0706, 2,    7698.36, -151.4,    1.0663, 3,    7678.37,   87.9,    1.0635
"BUSMVMAI67", 12.505, 1,    7728.52,  -31.4,    1.0704, 2,    7698.39, -151.4,    1.0663, 3,     7677.7,   87.9,    1.0634
"BUSMVMAI878", 12.505, 1,    7728.44,  -31.4,    1.0704, 0, 0, 0, 0, 0, 0, 0, 0
"BUSMVMAI68", 12.505, 1,    7727.38,  -31.4,    1.0703, 2,    7698.37, -151.4,    1.0663, 3,    7677.21,   87.9,    1.0633
"BUSMVMAI706", 12.505, 1,    7728.52,  -31.4,    1.0704, 2,    7698.39, -151.4,    1.0663, 3,     7677.7,   87.9,    1.0634
"BUSMVMAI876", 12.505, 3,    7681.98,   87.9,     1.064, 0, 0, 0, 0, 0, 0, 0, 0
"BUSMVMAI875", 12.505, 3,    7681.75,   87.9,     1.064, 0, 0, 0, 0, 0, 0, 0, 0
"BUSMVMAI877", 12.505, 3,    7681.67,   87.9,    1.0639, 0, 0, 0, 0, 0, 0, 0, 0
"BUSMVMAI883", 12.505, 3,    7681.49,   87.9,    1.0639, 0, 0, 0, 0, 0, 0, 0, 0
"BUSMVMAI884", 12.505, 3,    7681.66,   87.9,    1.0639, 0, 0, 0, 0, 0, 0, 0, 0
"BUSMVMAI886", 12.505, 3,    7681.66,   87.9,    1.0639, 0, 0, 0, 0, 0, 0, 0, 0
"BUSMVMAI885", 12.505, 1,    7728.32,  -31.4,    1.0704, 0, 0, 0, 0, 0, 0, 0, 0
"BUSMVMAI879", 12.505, 3,     7679.5,   87.9,    1.0636, 0, 0, 0, 0, 0, 0, 0, 0
"BUSMVMAI881", 12.505, 3,    7679.45,   87.9,    1.0636, 0, 0, 0, 0, 0, 0, 0, 0
"BUSMVMAI888", 12.505, 3,    7679.44,   87.9,    1.0636, 0, 0, 0, 0, 0, 0, 0, 0
"BUSMVMAI882", 12.505, 3,    7679.41,   87.9,    1.0636, 0, 0, 0, 0, 0, 0, 0, 0
"BUSMVMAI944", 12.505, 3,     7679.4,   87.9,    1.0636, 0, 0, 0, 0, 0, 0, 0, 0
"BUSMVMAI889", 12.505, 3,    7681.33,   87.9,    1.0639, 0, 0, 0, 0, 0, 0, 0, 0
"BUSMVMAI2183", 12.505, 3,    7681.66,   87.9,    1.0639, 0, 0, 0, 0, 0, 0, 0, 0
"BUSMVMAI2184", 12.505, 3,    7681.66,   87.9,    1.0639, 0, 0, 0, 0, 0, 0, 0, 0
"BUSMVMAI71", 12.505, 1,    7726.28,  -31.4,    1.0701, 2,    7698.33, -151.4,    1.0663, 3,    7676.73,   87.9,    1.0633
"BUSMVMAI2182", 12.505, 1,    7728.32,  -31.4,    1.0704, 0, 0, 0, 0, 0, 0, 0, 0
"BUSMVMAI2185", 12.505, 1,    7728.32,  -31.4,    1.0704, 0, 0, 0, 0, 0, 0, 0, 0
"BUSMVMAI2186", 12.505, 1,    7728.26,  -31.4,    1.0704, 0, 0, 0, 0, 0, 0, 0, 0
"BUSMVMAI887", 12.505, 3,    7681.64,   87.9,    1.0639, 0, 0, 0, 0, 0, 0, 0, 0
"BUSMVMAI892", 12.505, 3,    7681.63,   87.9,    1.0639, 0, 0, 0, 0, 0, 0, 0, 0
"BUSMVMAI897", 12.505, 3,    7679.37,   87.9,    1.0636, 0, 0, 0, 0, 0, 0, 0, 0
"BUSMVMAI890", 12.505, 3,    7681.19,   87.9,    1.0639, 0, 0, 0, 0, 0, 0, 0, 0
"BUSMVMAI891", 12.505, 3,     7681.1,   87.9,    1.0639, 0, 0, 0, 0, 0, 0, 0, 0
"BUSMVMAI896", 12.505, 3,    7681.07,   87.9,    1.0639, 0, 0, 0, 0, 0, 0, 0, 0
"BUSMVMAI893", 12.505, 3,    7681.61,   87.9,    1.0639, 0, 0, 0, 0, 0, 0, 0, 0
"BUSMVMAI894", 12.505, 3,     7681.6,   87.9,    1.0639, 0, 0, 0, 0, 0, 0, 0, 0
"BUSMVMAI895", 12.505, 3,    7681.59,   87.9,    1.0639, 0, 0, 0, 0, 0, 0, 0, 0
"BUSMVMAI898", 12.505, 3,    7681.59,   87.9,    1.0639, 0, 0, 0, 0, 0, 0, 0, 0
"BUSMVMAI70", 12.505, 1,    7728.52,  -31.4,    1.0704, 2,    7698.39, -151.4,    1.0663, 3,    7677.67,   87.9,    1.0634
"BUSMVMAI69", 12.505, 1,    7728.53,  -31.4,    1.0704, 2,    7698.39, -151.4,    1.0663, 3,    7677.66,   87.9,    1.0634
"BUSMVMAI708", 12.505, 1,    7728.52,  -31.4,    1.0704, 2,    7698.39, -151.4,    1.0663, 3,    7677.67,   87.9,    1.0634
"BUSMVMAI72", 12.505, 1,    7724.83,  -31.4,    1.0699, 2,    7698.28, -151.4,    1.0662, 3,     7676.1,   87.9,    1.0632
"BUSMVMAI73", 12.505, 1,    7723.44,  -31.4,    1.0697, 2,    7698.26, -151.4,    1.0662, 3,    7675.57,   87.9,    1.0631
"BUSMVMAI134", 12.505, 1,    7724.83,  -31.4,    1.0699, 2,    7698.28, -151.4,    1.0662, 3,     7676.1,   87.9,    1.0632
"BUSMVMAI900", 12.505, 3,     7679.3,   87.9,    1.0636, 0, 0, 0, 0, 0, 0, 0, 0
"BUSMVMAI904", 12.505, 3,    7681.59,   87.9,    1.0639, 0, 0, 0, 0, 0, 0, 0, 0
"BUSMVMAI75", 12.505, 1,    7722.77,  -31.4,    1.0696, 2,     7698.3, -151.4,    1.0662, 3,    7675.31,   87.9,    1.0631
"BUSMVMAI718", 12.505, 1,    7723.44,  -31.4,    1.0697, 2,    7698.25, -151.4,    1.0662, 3,    7675.57,   87.9,    1.0631
"BUSMVMAI899", 12.505, 3,     7679.3,   87.9,    1.0636, 0, 0, 0, 0, 0, 0, 0, 0
"BUSMVMAI902", 12.505, 3,    7679.27,   87.9,    1.0636, 0, 0, 0, 0, 0, 0, 0, 0
"BUSMVMAI901", 12.505, 3,    7679.24,   87.9,    1.0636, 0, 0, 0, 0, 0, 0, 0, 0
"BUSMVMAI903", 12.505, 3,    7679.19,   87.9,    1.0636, 0, 0, 0, 0, 0, 0, 0, 0
"BUSMVMAI905", 12.505, 3,    7679.14,   87.9,    1.0636, 0, 0, 0, 0, 0, 0, 0, 0
"BUSMVMAI907", 12.505, 3,    7679.19,   87.9,    1.0636, 0, 0, 0, 0, 0, 0, 0, 0
"BUSMVMAI906", 12.505, 3,    7679.13,   87.9,    1.0636, 0, 0, 0, 0, 0, 0, 0, 0
"BUSMVMAI946", 12.505, 3,    7679.13,   87.9,    1.0636, 0, 0, 0, 0, 0, 0, 0, 0
"BUSMVMAI74", 12.505, 1,    7722.77,  -31.4,    1.0696, 2,     7698.3, -151.4,    1.0662, 3,    7675.31,   87.9,    1.0631
"BUSMVMAI76", 12.505, 1,    7722.65,  -31.4,    1.0696, 2,    7698.39, -151.4,    1.0663, 3,    7675.25,   87.9,    1.0631
"BUSMVMAI77", 12.505, 1,    7722.38,  -31.4,    1.0696, 2,    7698.27, -151.4,    1.0662, 3,    7675.16,   87.9,     1.063
"BUSMVMAI79", 12.505, 1,    7722.63,  -31.4,    1.0696, 2,     7698.4, -151.4,    1.0663, 3,    7675.24,   87.9,    1.0631
"BUSMVMAI81", 12.505, 1,    7722.36,  -31.4,    1.0696, 2,    7698.18, -151.4,    1.0662, 3,     7675.2,   87.9,     1.063
"BUSMVMAI91", 12.505, 1,    7721.39,  -31.4,    1.0694, 2,    7698.27, -151.4,    1.0662, 3,    7674.75,   87.9,     1.063
"BUSMVMAI78", 12.505, 1,    7722.41,  -31.4,    1.0696, 2,    7698.56, -151.4,    1.0663, 3,    7675.13,   87.9,     1.063
"BUSMVMAI80", 12.505, 1,    7722.19,  -31.4,    1.0696, 2,    7698.73, -151.4,    1.0663, 3,    7675.01,   87.9,     1.063
"BUSMVMAI908", 12.505, 1,    7722.07,  -31.4,    1.0695, 0, 0, 0, 0, 0, 0, 0, 0
"BUSMVMAI89", 12.505, 1,    7722.11,  -31.4,    1.0695, 2,    7698.79, -151.4,    1.0663, 3,    7674.95,   87.9,     1.063
"BUSMVMAI949", 12.505, 3,    7679.19,   87.9,    1.0636, 0, 0, 0, 0, 0, 0, 0, 0
"BUSMVMAI82", 12.505, 1,    7722.34,  -31.4,    1.0696, 2,    7698.11, -151.4,    1.0662, 3,    7675.23,   87.9,    1.0631
"BUSMVMAI83", 12.505, 1,    7722.34,  -31.4,    1.0696, 2,    7698.09, -151.4,    1.0662, 3,    7675.22,   87.9,     1.063
"BUSMVMAI86", 12.505, 1,    7722.34,  -31.4,    1.0696, 2,    7698.07, -151.4,    1.0662, 3,    7675.21,   87.9,     1.063
"BUSMVMAI85", 12.505, 1,    7723.42,  -31.4,    1.0697, 2,    7698.15, -151.4,    1.0662, 3,    7675.54,   87.9,    1.0631
"BUSMVMAI84", 12.505, 1,    7723.36,  -31.4,    1.0697, 2,    7698.05, -151.4,    1.0662, 3,    7675.54,   87.9,    1.0631
"BUSMVMAI93", 12.505, 1,    7723.32,  -31.4,    1.0697, 2,    7697.99, -151.4,    1.0662, 3,    7675.53,   87.9,    1.0631
"BUSMVMAI2198", 12.505, 2,    7698.05, -151.4,    1.0662, 0, 0, 0, 0, 0, 0, 0, 0
"BUSMVMAI709", 12.505, 1,    7723.44,  -31.4,    1.0697, 2,    7698.25, -151.4,    1.0662, 3,    7675.57,   87.9,    1.0631
"BUSMVMAI88", 12.505, 1,    7722.35,  -31.4,    1.0696, 2,    7698.05, -151.4,    1.0662, 3,     7675.2,   87.9,     1.063
"BUSMVMAI87", 12.505, 1,    7722.36,  -31.4,    1.0696, 2,    7698.04, -151.4,    1.0662, 3,    7675.19,   87.9,     1.063
"BUSMVMAI99", 12.505, 1,    7722.35,  -31.4,    1.0696, 2,    7698.02, -151.4,    1.0662, 3,     7675.2,   87.9,     1.063
"BUSMVMAI722", 12.505, 1,    7722.36,  -31.4,    1.0696, 2,    7698.04, -151.4,    1.0662, 3,    7675.19,   87.9,     1.063
"BUSMVMAI909", 12.505, 1,    7721.96,  -31.4,    1.0695, 0, 0, 0, 0, 0, 0, 0, 0
"BUSMVMAI90", 12.505, 1,    7722.07,  -31.4,    1.0695, 2,    7698.82, -151.4,    1.0663, 3,     7674.9,   87.9,     1.063
"BUSMVMAI102", 12.505, 1,    7722.03,  -31.4,    1.0695, 2,    7698.85, -151.4,    1.0663, 3,    7674.84,   87.9,     1.063
"BUSMVMAI92", 12.505, 1,    7720.53,  -31.5,    1.0693, 2,    7698.27, -151.4,    1.0662, 3,    7674.39,   87.9,    1.0629
"BUSMVMAI132", 12.505, 1,    7721.39,  -31.4,    1.0694, 2,    7698.27, -151.4,    1.0662, 3,    7674.75,   87.9,     1.063
"BUSMVMAI98", 12.505, 1,    7720.53,  -31.5,    1.0693, 2,    7698.27, -151.4,    1.0662, 3,    7674.39,   87.9,    1.0629
"BUSMVMAI100", 12.505, 1,    7719.45,  -31.5,    1.0692, 2,    7698.37, -151.4,    1.0663, 3,    7673.88,   87.9,    1.0629
"BUSMVMAI723", 12.505, 1,    7720.53,  -31.5,    1.0693, 2,    7698.27, -151.4,    1.0662, 3,    7674.39,   87.9,    1.0629
"BUSMVMAI96", 12.505, 1,    7723.29,  -31.4,    1.0697, 2,    7697.93, -151.4,    1.0662, 3,    7675.53,   87.9,    1.0631
"BUSMVMAI916", 12.505, 1,    7723.32,  -31.4,    1.0697, 0, 0, 0, 0, 0, 0, 0, 0
"BUSMVMAI95", 12.505, 1,    7720.53,  -31.5,    1.0693, 2,    7698.19, -151.4,    1.0662, 3,     7674.4,   87.9,    1.0629
"BUSMVMAI94", 12.505, 1,     7720.5,  -31.5,    1.0693, 2,    7698.12, -151.4,    1.0662, 3,    7674.44,   87.9,    1.0629
"BUSMVMAI112", 12.505, 1,     7720.5,  -31.5,    1.0693, 2,    7698.12, -151.4,    1.0662, 3,    7674.43,   87.9,    1.0629
"BUSMVMAI126", 12.505, 1,    7720.53,  -31.5,    1.0693, 2,     7698.2, -151.4,    1.0662, 3,     7674.4,   87.9,    1.0629
"BUSMVMAI97", 12.505, 1,    7723.24,  -31.4,    1.0697, 2,    7697.84, -151.4,    1.0662, 3,    7675.53,   87.9,    1.0631
"BUSMVMAI711", 12.505, 1,    7723.29,  -31.4,    1.0697, 2,    7697.93, -151.4,    1.0662, 3,    7675.53,   87.9,    1.0631
"BUSMVMAI915", 12.505, 1,    7723.24,  -31.4,    1.0697, 0, 0, 0, 0, 0, 0, 0, 0
...
"BUSLVMAI1", 0.20785, 1,      127.7,   87.9,    1.0642, 2,    127.716,  -92.1,    1.0643, 0, 0, 0, 0
"BUSLVMAI2", 0.20785, 1,     127.55,   87.8,    1.0629, 2,    127.563,  -92.2,     1.063, 0, 0, 0, 0
"BUSLVMAI3", 0.20785, 1,    127.673,   87.9,    1.0639, 2,    127.689,  -92.1,    1.0641, 0, 0, 0, 0
"BUSLVMAI4", 0.20785, 1,    128.107,  -31.6,    1.0676, 2,    128.204,  148.4,    1.0684, 0, 0, 0, 0
"BUSLVMAI5", 0.20785, 1,    127.274, -151.6,    1.0606, 2,    127.328,   28.4,    1.0611, 0, 0, 0, 0
"BUSLVMAI6", 0.20785, 1,    127.565,   87.7,     1.063, 2,     127.58,  -92.3,    1.0632, 0, 0, 0, 0
"BUSLVMAI7", 0.20785, 1,    127.706,   87.9,    1.0642, 2,     127.72,  -92.1,    1.0643, 0, 0, 0, 0
"BUSLVMAI8", 0.20785, 1,    127.215,   87.8,    1.0601, 2,    127.235,  -92.2,    1.0603, 0, 0, 0, 0
"BUSLVMAI9", 0.20785, 1,    127.126,   87.4,    1.0594, 2,    127.139,  -92.6,    1.0595, 0, 0, 0, 0
"BUSLVMAI10", 0.20785, 1,    127.167,   87.4,    1.0597, 2,     127.18,  -92.6,    1.0598, 0, 0, 0, 0
"BUSLVMAI11", 0.20785, 1,    127.825, -151.4,    1.0652, 2,    127.838,   28.6,    1.0653, 0, 0, 0, 0
"BUSLVMAI12", 0.20785, 1,    127.763, -151.4,    1.0647, 2,    127.778,   28.6,    1.0648, 0, 0, 0, 0
"BUSLVMAI13", 0.20785, 1,    128.603,  -31.3,    1.0717, 2,    128.618,  148.7,    1.0718, 0, 0, 0, 0
"BUSLVMAI14", 0.20785, 1,    128.582,  -31.4,    1.0715, 2,    128.598,  148.6,    1.0716, 0, 0, 0, 0
"BUSLVMAI15", 0.20785, 1,     128.59,  -31.3,    1.0716, 2,    128.603,  148.7,    1.0717, 0, 0, 0, 0
"BUSLVMAI16", 0.20785, 1,    127.677,   87.9,     1.064, 2,    127.695,  -92.1,    1.0641, 0, 0, 0, 0
"BUSLVMAI17", 0.20785, 1,    126.876,   87.5,    1.0573, 2,     126.91,  -92.5,    1.0576, 0, 0, 0, 0
"BUSLVMAI18", 0.20785, 1,     127.61,   87.8,    1.0634, 2,    127.626,  -92.2,    1.0635, 0, 0, 0, 0
"BUSLVMAI19", 0.20785, 1,    127.602,   87.9,    1.0633, 2,    127.615,  -92.2,    1.0635, 0, 0, 0, 0
"BUSLVMAI20", 0.20785, 1,    127.465, -151.5,    1.0622, 2,    127.499,   28.5,    1.0625, 0, 0, 0, 0
"BUSLVMAI21", 0.20785, 1,    127.701,   87.9,    1.0642, 2,    127.717,  -92.1,    1.0643, 0, 0, 0, 0
"BUSLVMAI22", 0.20785, 1,    128.463,  -31.4,    1.0705, 2,    128.548,  148.6,    1.0712, 0, 0, 0, 0
"BUSLVMAI23", 0.20785, 1,    127.657,   87.9,    1.0638, 2,    127.673,  -92.1,    1.0639, 0, 0, 0, 0
"BUSLVMAI24", 0.20785, 1,    127.666,   87.9,    1.0639, 2,    127.682,  -92.1,     1.064, 0, 0, 0, 0
"BUSLVMAI25", 0.20785, 1,    127.619,   87.9,    1.0635, 2,    127.635,  -92.1,    1.0636, 0, 0, 0, 0
"BUSLVMAI26", 0.20785, 1,    127.769, -151.4,    1.0647, 2,    127.784,   28.6,    1.0649, 0, 0, 0, 0
"BUSLVMAI27", 0.20785, 1,    127.845, -151.4,    1.0654, 2,    127.861,   28.6,    1.0655, 0, 0, 0, 0
"BUSLVMAI28", 0.20785, 1,     127.61,   87.8,    1.0634, 2,    127.626,  -92.2,    1.0635, 0, 0, 0, 0
"BUSLVMAI29", 0.20785, 1,    127.284,   87.5,    1.0607, 2,      127.3,  -92.5,    1.0608, 0, 0, 0, 0
"BUSLVMAI30", 0.20785, 1,    127.603, -151.5,    1.0634, 2,    127.618,   28.5,    1.0635, 0, 0, 0, 0
"BUSLVMAI31", 0.20785, 1,    127.675,   87.9,     1.064, 2,    127.691,  -92.1,    1.0641, 0, 0, 0, 0
"BUSLVMAI32", 0.20785, 1,    128.346,  -31.4,    1.0696, 2,    128.359,  148.6,    1.0697, 0, 0, 0, 0
"BUSLVMAI33", 0.20785, 1,    127.589,   87.8,    1.0632, 2,    127.602,  -92.2,    1.0634, 0, 0, 0, 0
"BUSLVMAI34", 0.20785, 1,    126.223,   87.6,    1.0519, 2,    126.382,  -92.4,    1.0532, 0, 0, 0, 0
"BUSLVMAI35", 0.20785, 1,    127.601,   87.9,    1.0633, 2,    127.615,  -92.1,    1.0635, 0, 0, 0, 0
"BUSLVMAI36", 0.20785, 1,    127.599,   87.9,    1.0633, 2,    127.613,  -92.1,    1.0634, 0, 0, 0, 0
"BUSLVMAI37", 0.20785, 1,    127.592,   87.9,    1.0633, 2,    127.607,  -92.1,    1.0634, 0, 0, 0, 0
"BUSLVMAI38", 0.20785, 1,    124.245, -152.3,    1.0354, 2,    124.263,   27.7,    1.0355, 0, 0, 0, 0
"BUSLVMAI39", 0.20785, 1,     127.61, -151.6,    1.0634, 2,    127.623,   28.4,    1.0635, 0, 0, 0, 0
"BUSLVMAI40", 0.20785, 1,    127.175,   87.7,    1.0598, 2,     127.23,  -92.3,    1.0603, 0, 0, 0, 0
"BUSLVMAI41", 0.20785, 1,     128.31,  -31.4,    1.0692, 2,    128.325,  148.6,    1.0694, 0, 0, 0, 0
"BUSLVMAI42", 0.20785, 1,    128.363,  -31.4,    1.0697, 2,    128.378,  148.6,    1.0698, 0, 0, 0, 0
"BUSLVMAI43", 0.20785, 1,     128.33,  -31.4,    1.0694, 2,    128.346,  148.6,    1.0695, 0, 0, 0, 0
"BUSLVMAI44", 0.20785, 1,    127.414,   87.9,    1.0618, 2,     127.45,  -92.1,    1.0621, 0, 0, 0, 0
"BUSLVMAI45", 0.20785, 1,    127.419,   87.9,    1.0618, 2,    127.434,  -92.1,    1.0619, 0, 0, 0, 0
"BUSLVMAI46", 0.20785, 1,    127.532,   87.9,    1.0628, 2,    127.547,  -92.1,    1.0629, 0, 0, 0, 0
"BUSLVMAI47", 0.20785, 1,    127.603,   87.9,    1.0634, 2,    127.617,  -92.1,    1.0635, 0, 0, 0, 0
"BUSLVMAI48", 0.20785, 1,    127.151,   87.7,    1.0596, 2,    127.168,  -92.3,    1.0597, 0, 0, 0, 0
"BUSLVMAI49", 0.20785, 1,    128.326,  -31.4,    1.0694, 2,    128.341,  148.6,    1.0695, 0, 0, 0, 0
"BUSLVMAI50", 0.20785, 1,    126.565, -151.8,    1.0547, 2,    126.694,   28.2,    1.0558, 0, 0, 0, 0
"BUSLVMAI51", 0.20785, 1,    127.701,  -31.6,    1.0642, 2,    127.717,  148.3,    1.0643, 0, 0, 0, 0
"BUSLVMAI52", 0.20785, 1,    127.612,   87.9,    1.0634, 2,    127.625,  -92.1,    1.0635, 0, 0, 0, 0
"BUSLVMAI53", 0.20785, 1,    127.594,   87.9,    1.0633, 2,     127.61,  -92.1,    1.0634, 0, 0, 0, 0
"BUSLVMAI54", 0.20785, 1,    126.926,   87.7,    1.0577, 2,    126.942,  -92.3,    1.0578, 0, 0, 0, 0
"BUSLVMAI55", 0.20785, 1,    128.355,  -31.4,    1.0696, 2,    128.371,  148.6,    1.0698, 0, 0, 0, 0
"BUSLVMAI56", 0.20785, 1,    127.225,   87.8,    1.0602, 2,    127.238,  -92.2,    1.0603, 0, 0, 0, 0
"BUSLVMAI57", 0.20785, 1,    127.513,   87.9,    1.0626, 2,    127.528,  -92.1,    1.0627, 0, 0, 0, 0
"BUSLVMAI58", 0.20785, 1,     127.61,   87.9,    1.0634, 2,    127.624,  -92.1,    1.0635, 0, 0, 0, 0
"BUSLVMAI59", 0.20785, 1,    128.326,  -31.4,    1.0694, 2,    128.341,  148.6,    1.0695, 0, 0, 0, 0
"BUSLVMAI60", 0.20785, 1,    128.295,  -31.5,    1.0691, 2,    128.308,  148.5,    1.0692, 0, 0, 0, 0
"BUSLVMAI61", 0.20785, 1,    127.715,  -31.7,    1.0643, 2,    127.732,  148.3,    1.0644, 0, 0, 0, 0
"BUSLVMAI62", 0.20785, 1,    127.742, -151.5,    1.0645, 2,    127.756,   28.5,    1.0646, 0, 0, 0, 0
"BUSLVMAI63", 0.20785, 1,    128.046,  -31.5,    1.0671, 2,    128.068,  148.5,    1.0672, 0, 0, 0, 0
"BUSLVMAI64", 0.20785, 1,    127.752, -151.5,    1.0646, 2,    127.765,   28.5,    1.0647, 0, 0, 0, 0
"BUSLVMAI65", 0.20785, 1,    128.308,  -31.4,    1.0692, 2,    128.322,  148.6,    1.0694, 0, 0, 0, 0
"BUSLVMAI66", 0.20785, 1,      127.6,   87.9,    1.0633, 2,    127.614,  -92.1,    1.0634, 0, 0, 0, 0
"BUSLVMAI67", 0.20785, 1,    127.972,  -31.5,    1.0664, 2,    127.988,  148.4,    1.0666, 0, 0, 0, 0
"BUSLVMAI68", 0.20785, 1,    127.851,  -31.7,    1.0654, 2,    127.864,  148.3,    1.0655, 0, 0, 0, 0
"BUSLVMAI69", 0.20785, 1,    127.603,   87.9,    1.0634, 2,    127.617,  -92.1,    1.0635, 0, 0, 0, 0
"BUSLVMAI70", 0.20785, 1,    127.219,   87.7,    1.0602, 2,    127.249,  -92.3,    1.0604, 0, 0, 0, 0
"BUSLVMAI71", 0.20785, 1,    127.679,  -31.7,     1.064, 2,    127.693,  148.3,    1.0641, 0, 0, 0, 0
"BUSLVMAI72", 0.20785, 1,    128.238,  -31.5,    1.0686, 2,    128.251,  148.5,    1.0688, 0, 0, 0, 0
"BUSLVMAI73", 0.20785, 1,    128.101,  -31.5,    1.0675, 2,    128.114,  148.5,    1.0676, 0, 0, 0, 0
"BUSLVMAI74", 0.20785, 1,    128.324,  -31.4,    1.0694, 2,     128.34,  148.6,    1.0695, 0, 0, 0, 0
"BUSLVMAI75", 0.20785, 1,    127.522, -151.6,    1.0627, 2,    127.536,   28.4,    1.0628, 0, 0, 0, 0
"BUSLVMAI76", 0.20785, 1,    127.599,   87.9,    1.0633, 2,    127.613,  -92.1,    1.0634, 0, 0, 0, 0
"BUSLVMAI77", 0.20785, 1,    127.979,  -31.6,    1.0665, 2,    127.993,  148.4,    1.0666, 0, 0, 0, 0
"BUSLVMAI78", 0.20785, 1,    128.233,  -31.5,    1.0686, 2,    128.246,  148.5,    1.0687, 0, 0, 0, 0
"BUSLVMAI79", 0.20785, 1,     127.52,   87.9,    1.0627, 2,    127.534,  -92.1,    1.0628, 0, 0, 0, 0
"BUSLVMAI80", 0.20785, 1,    126.717,   87.5,     1.056, 2,    126.745,  -92.5,    1.0562, 0, 0, 0, 0
"BUSLVMAI81", 0.20785, 1,    127.599,   87.9,    1.0633, 2,    127.613,  -92.1,    1.0634, 0, 0, 0, 0
"BUSLVMAI82", 0.20785, 1,    127.439,   87.9,     1.062, 2,    127.456,  -92.1,    1.0621, 0, 0, 0, 0
"BUSLVMAI83", 0.20785, 1,    127.959,  -31.6,    1.0663, 2,    127.979,  148.4,    1.0665, 0, 0, 0, 0
"BUSLVMAI84", 0.20785, 1,    127.256,   87.8,    1.0605, 2,    127.271,  -92.2,    1.0606, 0, 0, 0, 0
"BUSLVMAI85", 0.20785, 1,    127.835, -151.4,    1.0653, 2,    127.854,   28.5,    1.0654, 0, 0, 0, 0
"BUSLVMAI86", 0.20785, 1,     128.09,  -31.5,    1.0674, 2,    128.129,  148.5,    1.0677, 0, 0, 0, 0
"BUSLVMAI87", 0.20785, 1,    128.318,  -31.4,    1.0693, 2,    128.357,  148.6,    1.0696, 0, 0, 0, 0
"BUSLVMAI88", 0.20785, 1,     127.64,   87.9,    1.0637, 2,    127.653,  -92.1,    1.0638, 0, 0, 0, 0
"BUSLVMAI89", 0.20785, 1,    127.599,   87.9,    1.0633, 2,    127.613,  -92.1,    1.0634, 0, 0, 0, 0
"BUSLVMAI90", 0.20785, 1,    127.193,   87.8,    1.0599, 2,    127.209,  -92.2,    1.0601, 0, 0, 0, 0
"BUSLVMAI91", 0.20785, 1,    127.599,   87.9,    1.0633, 2,    127.614,  -92.1,    1.0635, 0, 0, 0, 0
"BUSLVMAI92", 0.20785, 1,    128.031,  -31.6,    1.0669, 2,    128.054,  148.4,    1.0671, 0, 0, 0, 0
"BUSLVMAI93", 0.20785, 1,    127.411,   87.9,    1.0618, 2,    127.427,  -92.1,    1.0619, 0, 0, 0, 0
"BUSLVMAI94", 0.20785, 1,    127.254,   87.8,    1.0605, 2,    127.269,  -92.3,    1.0606, 0, 0, 0, 0
"BUSLVMAI95", 0.20785, 1,    127.513,   87.9,    1.0626, 2,    127.528,  -92.1,    1.0627, 0, 0, 0, 0
"BUSLVMAI96", 0.20785, 1,    127.583,   87.9,    1.0632, 2,    127.598,  -92.1,    1.0633, 0, 0, 0, 0
"BUSLVMAI97", 0.20785, 1,    127.906, -151.4,    1.0659, 2,    127.921,   28.6,     1.066, 0, 0, 0, 0
"BUSLVMAI98", 0.20785, 1,    127.906, -151.4,    1.0659, 2,    127.921,   28.6,     1.066, 0, 0, 0, 0
"BUSLVMAI99", 0.20785, 1,    127.598,   87.9,    1.0633, 2,    127.612,  -92.1,    1.0634, 0, 0, 0, 0
"BUSLVMAI100", 0.20785, 1,    127.568,   87.9,    1.0631, 2,    127.583,  -92.1,    1.0632, 0, 0, 0, 0
"BUSLVMAI101", 0.20785, 1,    127.511,   87.9,    1.0626, 2,    127.527,  -92.1,    1.0627, 0, 0, 0, 0
"BUSLVMAI102", 0.20785, 1,    127.597,   87.9,    1.0633, 2,    127.613,  -92.1,    1.0634, 0, 0, 0, 0
"BUSLVMAI103", 0.20785, 1,     127.48,   87.9,    1.0623, 2,    127.496,  -92.1,    1.0625, 0, 0, 0, 0
"BUSLVMAI104", 0.20785, 1,    127.461,   87.9,    1.0622, 2,    127.475,  -92.1,    1.0623, 0, 0, 0, 0
"BUSLVMAI105", 0.20785, 1,    127.321,   87.8,     1.061, 2,    127.336,  -92.2,    1.0611, 0, 0, 0, 0
"BUSLVMAI106", 0.20785, 1,    128.287,  -31.4,    1.0691, 2,      128.3,  148.5,    1.0692, 0, 0, 0, 0
"BUSLVMAI107", 0.20785, 1,    127.602,   87.9,    1.0634, 2,    127.616,  -92.1,    1.0635, 0, 0, 0, 0
"BUSLVMAI108", 0.20785, 1,    127.525,   87.9,    1.0627, 2,    127.539,  -92.1,    1.0628, 0, 0, 0, 0
"BUSLVMAI109", 0.20785, 1,    127.707,  -31.7,    1.0642, 2,    127.779,  148.3,    1.0648, 0, 0, 0, 0
"BUSLVMAI110", 0.20785, 1,    127.933,  -31.6,    1.0661, 2,    127.956,  148.4,    1.0663, 0, 0, 0, 0
"BUSLVMAI111", 0.20785, 1,    128.071,  -31.5,    1.0673, 2,    128.087,  148.5,    1.0674, 0, 0, 0, 0
"BUSLVMAI112", 0.20785, 1,    128.201,  -31.5,    1.0683, 2,    128.217,  148.5,    1.0685, 0, 0, 0, 0
"BUSLVMAI113", 0.20785, 1,     127.85, -151.4,    1.0654, 2,    127.866,   28.6,    1.0655, 0, 0, 0, 0
"BUSLVMAI114", 0.20785, 1,    127.177,  -31.9,    1.0598, 2,    127.193,  148.1,    1.0599, 0, 0, 0, 0
"BUSLVMAI115", 0.20785, 1,    128.073,  -31.5,    1.0673, 2,    128.086,  148.5,    1.0674, 0, 0, 0, 0
"BUSLVMAI116", 0.20785, 1,    127.477,   87.9,    1.0623, 2,     127.49,  -92.1,    1.0624, 0, 0, 0, 0
"BUSLVMAI117", 0.20785, 1,    127.682,  -31.7,     1.064, 2,    127.707,  148.3,    1.0642, 0, 0, 0, 0
"BUSLVMAI118", 0.20785, 1,    127.725,  -31.7,    1.0644, 2,    127.741,  148.3,    1.0645, 0, 0, 0, 0
"BUSLVMAI119", 0.20785, 1,    127.229,   87.8,    1.0602, 2,    127.242,  -92.2,    1.0604, 0, 0, 0, 0
"BUSLVMAI120", 0.20785, 1,    128.071,  -31.5,    1.0673, 2,    128.085,  148.5,    1.0674, 0, 0, 0, 0
"BUSLVMAI121", 0.20785, 1,    127.939, -151.4,    1.0662, 2,    127.955,   28.6,    1.0663, 0, 0, 0, 0
"BUSLVMAI122", 0.20785, 1,    127.464,   87.9,    1.0622, 2,     127.48,  -92.1,    1.0623, 0, 0, 0, 0
"BUSLVMAI123", 0.20785, 1,    127.938, -151.4,    1.0661, 2,    127.952,   28.6,    1.0663, 0, 0, 0, 0
"BUSLVMAI124", 0.20785, 1,    126.909,   87.7,    1.0576, 2,    126.959,  -92.3,     1.058, 0, 0, 0, 0
"BUSLVMAI125", 0.20785, 1,     127.06,   87.8,    1.0588, 2,    127.076,  -92.2,     1.059, 0, 0, 0, 0
"BUSLVMAI126", 0.20785, 1,    127.945, -151.4,    1.0662, 2,    127.959,   28.6,    1.0663, 0, 0, 0, 0
"BUSLVMAI127", 0.20785, 1,    127.467,   87.9,    1.0622, 2,    127.481,  -92.1,    1.0623, 0, 0, 0, 0
"BUSLVMAI128", 0.20785, 1,     127.02, -151.8,    1.0585, 2,     127.04,   28.2,    1.0587, 0, 0, 0, 0
"BUSLVMAI129", 0.20785, 1,    128.072,  -31.5,    1.0673, 2,    128.085,  148.5,    1.0674, 0, 0, 0, 0
"BUSLVMAI130", 0.20785, 1,    128.231,  -31.5,    1.0686, 2,    128.246,  148.5,    1.0687, 0, 0, 0, 0
"BUSLVMAI131", 0.20785, 1,    127.264,  -31.8,    1.0605, 2,    127.286,  148.2,    1.0607, 0, 0, 0, 0
"BUSLVMAI132", 0.20785, 1,    128.069,  -31.5,    1.0672, 2,    128.082,  148.5,    1.0674, 0, 0, 0, 0
"BUSLVMAI133", 0.20785, 1,    127.485,   87.9,    1.0624, 2,    127.503,  -92.1,    1.0625, 0, 0, 0, 0
"BUSLVMAI134", 0.20785, 1,    127.199,   87.8,      1.06, 2,    127.214,  -92.2,    1.0601, 0, 0, 0, 0
"BUSLVMAI135", 0.20785, 1,    127.423,   87.9,    1.0619, 2,    127.439,  -92.1,     1.062, 0, 0, 0, 0
"BUSLVMAI136", 0.20785, 1,    127.659,  -31.7,    1.0638, 2,    127.697,  148.3,    1.0641, 0, 0, 0, 0
"BUSLVMAI137", 0.20785, 1,    127.636, -151.5,    1.0636, 2,    127.649,   28.4,    1.0637, 0, 0, 0, 0
"BUSLVMAI138", 0.20785, 1,    127.735, -151.5,    1.0645, 2,    127.761,   28.5,    1.0647, 0, 0, 0, 0
"BUSLVMAI139", 0.20785, 1,    127.503, -151.6,    1.0625, 2,     127.52,   28.4,    1.0627, 0, 0, 0, 0
"BUSLVMAI140", 0.20785, 1,    127.773,  -31.6,    1.0648, 2,    127.789,  148.4,    1.0649, 0, 0, 0, 0
"BUSLVMAI141", 0.20785, 1,    127.945, -151.4,    1.0662, 2,    127.959,   28.6,    1.0663, 0, 0, 0, 0
"BUSLVMAI142", 0.20785, 1,    127.518, -151.6,    1.0627, 2,    127.533,   28.4,    1.0628, 0, 0, 0, 0
"BUSLVMAI143", 0.20785, 1,    127.863, -151.4,    1.0655, 2,    127.878,   28.6,    1.0657, 0, 0, 0, 0
"BUSLVMAI144", 0.20785, 1,    127.466,   87.9,    1.0622, 2,    127.482,  -92.1,    1.0623, 0, 0, 0, 0
"BUSLVMAI145", 0.20785, 1,    128.185,  -31.5,    1.0682, 2,    128.201,  148.5,    1.0683, 0, 0, 0, 0
"BUSLVMAI146", 0.20785, 1,     127.93, -151.4,    1.0661, 2,    127.945,   28.6,    1.0662, 0, 0, 0, 0
"BUSLVMAI147", 0.20785, 1,    127.451,  -31.8,    1.0621, 2,    127.466,  148.2,    1.0622, 0, 0, 0, 0
"BUSLVMAI148", 0.20785, 1,     127.42,   87.9,    1.0618, 2,    127.436,  -92.1,     1.062, 0, 0, 0, 0
"BUSLVMAI149", 0.20785, 1,    127.564, -151.6,     1.063, 2,    127.577,   28.4,    1.0631, 0, 0, 0, 0
"BUSLVMAI150", 0.20785, 1,    127.631,  -31.7,    1.0636, 2,    127.653,  148.3,    1.0638, 0, 0, 0, 0
"BUSLVMAI151", 0.20785, 1,    127.413, -151.6,    1.0618, 2,    127.426,   28.4,    1.0619, 0, 0, 0, 0
"BUSLVMAI152", 0.20785, 1,    128.061,  -31.5,    1.0672, 2,    128.077,  148.5,    1.0673, 0, 0, 0, 0
"BUSLVMAI153", 0.20785, 1,    126.646,   87.6,    1.0554, 2,    126.662,  -92.4,    1.0555, 0, 0, 0, 0
"BUSLVMAI154", 0.20785, 1,    127.478,   87.9,    1.0623, 2,    127.494,  -92.1,    1.0624, 0, 0, 0, 0
"BUSLVMAI155", 0.20785, 1,    127.697,  -31.7,    1.0641, 2,    127.711,  148.3,    1.0643, 0, 0, 0, 0
"BUSLVMAI156", 0.20785, 1,    128.077,  -31.5,    1.0673, 2,     128.09,  148.5,    1.0674, 0, 0, 0, 0
"BUSLVMAI157", 0.20785, 1,    127.271,  -31.8,    1.0606, 2,    127.287,  148.2,    1.0607, 0, 0, 0, 0
"BUSLVMAI158", 0.20785, 1,    127.876, -151.5,    1.0656, 2,     127.89,   28.5,    1.0657, 0, 0, 0, 0
"BUSLVMAI159", 0.20785, 1,     127.87, -151.4,    1.0656, 2,    127.884,   28.6,    1.0657, 0, 0, 0, 0
"BUSLVMAI160", 0.20785, 1,    127.922,  -31.6,     1.066, 2,     127.94,  148.4,    1.0662, 0, 0, 0, 0
"BUSLVMAI161", 0.20785, 1,    127.797,  -31.6,     1.065, 2,    127.828,  148.4,    1.0652, 0, 0, 0, 0
"BUSLVMAI162", 0.20785, 1,    127.909,  -31.6,    1.0659, 2,    127.925,  148.4,     1.066, 0, 0, 0, 0
"BUSLVMAI163", 0.20785, 1,    128.061,  -31.5,    1.0672, 2,    128.077,  148.5,    1.0673, 0, 0, 0, 0
"BUSLVMAI164", 0.20785, 1,    128.263,  -31.5,    1.0689, 2,    128.276,  148.5,     1.069, 0, 0, 0, 0
"BUSLVMAI165", 0.20785, 1,    127.506,  -31.7,    1.0626, 2,    127.562,  148.3,     1.063, 0, 0, 0, 0
"BUSLVMAI166", 0.20785, 1,    127.839,  -31.7,    1.0653, 2,    127.875,  148.3,    1.0656, 0, 0, 0, 0
"BUSLVMAI167", 0.20785, 1,    127.182,   87.8,    1.0599, 2,      127.2,  -92.2,      1.06, 0, 0, 0, 0
"BUSLVMAI168", 0.20785, 1,    127.327,   87.9,    1.0611, 2,    127.341,  -92.1,    1.0612, 0, 0, 0, 0
"BUSLVMAI169", 0.20785, 1,    126.566,  -31.8,    1.0547, 2,    126.583,  148.2,    1.0549, 0, 0, 0, 0
"BUSLVMAI170", 0.20785, 1,    128.067,  -31.5,    1.0672, 2,    128.081,  148.5,    1.0673, 0, 0, 0, 0
"BUSLVMAI171", 0.20785, 1,    127.604,  -31.7,    1.0634, 2,    127.706,  148.3,    1.0642, 0, 0, 0, 0
"BUSLVMAI172", 0.20785, 1,     127.03,   87.7,    1.0586, 2,    127.044,  -92.3,    1.0587, 0, 0, 0, 0
"BUSLVMAI173", 0.20785, 1,    127.462,   87.9,    1.0622, 2,    127.478,  -92.1,    1.0623, 0, 0, 0, 0
"BUSLVMAI174", 0.20785, 1,    127.773,  -31.6,    1.0648, 2,    127.802,  148.4,     1.065, 0, 0, 0, 0
"BUSLVMAI175", 0.20785, 1,    127.643,  -31.7,    1.0637, 2,    127.658,  148.3,    1.0638, 0, 0, 0, 0
"BUSLVMAI176", 0.20785, 1,    127.357,   87.9,    1.0613, 2,     127.37,  -92.1,    1.0614, 0, 0, 0, 0
"BUSLVMAI177", 0.20785, 1,    127.434,   87.9,    1.0619, 2,    127.447,  -92.1,    1.0621, 0, 0, 0, 0
"BUSLVMAI178", 0.20785, 1,    127.885, -151.5,    1.0657, 2,    127.898,   28.5,    1.0658, 0, 0, 0, 0
"BUSLVMAI179", 0.20785, 1,     127.74, -151.5,    1.0645, 2,    127.753,   28.5,    1.0646, 0, 0, 0, 0
"BUSLVMAI180", 0.20785, 1,    128.077,  -31.5,    1.0673, 2,     128.09,  148.5,    1.0674, 0, 0, 0, 0
"BUSLVMAI181", 0.20785, 1,    128.066,  -31.5,    1.0672, 2,     128.08,  148.5,    1.0673, 0, 0, 0, 0
"BUSLVMAI182", 0.20785, 1,    127.339,  -31.9,    1.0612, 2,     127.45,  148.2,    1.0621, 0, 0, 0, 0
"BUSLVMAI183", 0.20785, 1,     127.41,   87.9,    1.0618, 2,    127.425,  -92.1,    1.0619, 0, 0, 0, 0
"BUSLVMAI184", 0.20785, 1,    128.234,  -31.5,    1.0686, 2,    128.247,  148.5,    1.0687, 0, 0, 0, 0
"BUSLVMAI185", 0.20785, 1,    127.536, -151.6,    1.0628, 2,     127.55,   28.4,    1.0629, 0, 0, 0, 0
"BUSLVMAI186", 0.20785, 1,    127.481,   87.9,    1.0623, 2,    127.497,  -92.1,    1.0625, 0, 0, 0, 0
"BUSLVMAI187", 0.20785, 1,    127.359,   87.9,    1.0613, 2,    127.372,  -92.1,    1.0614, 0, 0, 0, 0
"BUSLVMAI188", 0.20785, 1,    127.886, -151.4,    1.0657, 2,    127.902,   28.6,    1.0658, 0, 0, 0, 0
"BUSLVMAI189", 0.20785, 1,    128.072,  -31.5,    1.0673, 2,    128.088,  148.5,    1.0674, 0, 0, 0, 0
"BUSLVMAI190", 0.20785, 1,    127.875, -151.4,    1.0656, 2,    127.892,   28.6,    1.0658, 0, 0, 0, 0
"BUSLVMAI191", 0.20785, 1,    127.478,   87.9,    1.0623, 2,    127.494,  -92.1,    1.0624, 0, 0, 0, 0
"BUSLVMAI192", 0.20785, 1,     128.06,  -31.5,    1.0672, 2,    128.076,  148.5,    1.0673, 0, 0, 0, 0
"BUSLVMAI193", 0.20785, 1,    128.068,  -31.5,    1.0672, 2,    128.084,  148.5,    1.0674, 0, 0, 0, 0
"BUSLVMAI194", 0.20785, 1,    127.396,   87.9,    1.0616, 2,    127.412,  -92.1,    1.0618, 0, 0, 0, 0
"BUSLVMAI195", 0.20785, 1,     127.48,   87.9,    1.0623, 2,    127.496,  -92.1,    1.0625, 0, 0, 0, 0
"BUSLVMAI196", 0.20785, 1,    127.848, -151.4,    1.0654, 2,    127.864,   28.6,    1.0655, 0, 0, 0, 0
"BUSLVMAI197", 0.20785, 1,    127.731, -151.5,    1.0644, 2,    127.745,   28.5,    1.0645, 0, 0, 0, 0
"BUSLVMAI198", 0.20785, 1,    127.848, -151.4,    1.0654, 2,    127.863,   28.6,    1.0655, 0, 0, 0, 0
"BUSLVMAI199", 0.20785, 1,    127.848, -151.4,    1.0654, 2,    127.864,   28.6,    1.0655, 0, 0, 0, 0
"BUSLVMAI200", 0.20785, 1,    128.059,  -31.5,    1.0672, 2,    128.075,  148.5,    1.0673, 0, 0, 0, 0
...
